URI
                    3D
 Structure written by MMmdl.
 29 30  0  0  1  0            999 V2000
  -21.1072  -15.8507   -4.8709 O   0  0  0  0  0  0
  -20.5344  -16.3735   -6.0576 C   0  0  0  0  0  0
  -18.9929  -16.3960   -5.9851 C   0  0  2  0  0  0
  -18.3115  -15.0453   -5.7684 C   0  0  1  0  0  0
  -18.3065  -14.6506   -4.4046 O   0  0  0  0  0  0
  -16.9098  -15.2117   -6.3855 C   0  0  1  0  0  0
  -15.8688  -15.4861   -5.4588 O   0  0  0  0  0  0
  -17.1040  -16.4402   -7.2953 C   0  0  1  0  0  0
  -18.4746  -16.7284   -7.2628 O   0  0  0  0  0  0
  -16.6599  -16.2953   -8.6757 N   0  0  0  0  0  0
  -15.5948  -17.0455   -9.1480 C   0  0  0  0  0  0
  -14.9186  -17.8505   -8.5068 O   0  0  0  0  0  0
  -15.3033  -16.8204  -10.4693 N   0  0  0  0  0  0
  -17.3513  -15.4509   -9.5140 C   0  0  0  0  0  0
  -17.0502  -15.2960  -10.8173 C   0  0  0  0  0  0
  -15.9128  -16.0000  -11.3734 C   0  0  0  0  0  0
  -15.5282  -15.8653  -12.5317 O   0  0  0  0  0  0
  -18.6554  -17.1335   -5.2521 H   0  0  0  0  0  0
  -18.8491  -14.2938   -6.3516 H   0  0  0  0  0  0
  -16.6592  -14.3322   -6.9816 H   0  0  0  0  0  0
  -16.6035  -17.3196   -6.8766 H   0  0  0  0  0  0
  -14.5060  -17.3280  -10.8207 H   0  0  0  0  0  0
  -21.1345  -14.8825   -4.9319 H   0  0  0  0  0  0
  -20.9060  -17.3882   -6.2041 H   0  0  0  0  0  0
  -20.8769  -15.7744   -6.9026 H   0  0  0  0  0  0
  -19.2021  -14.7167   -4.0600 H   0  0  0  0  0  0
  -16.0464  -14.9904   -4.6514 H   0  0  0  0  0  0
  -18.1659  -14.9316   -9.0299 H   0  0  0  0  0  0
  -17.6294  -14.6502  -11.4575 H   0  0  0  0  0  0
  1  2  1  0  0  0
  1 23  1  0  0  0
  2  3  1  0  0  0
  2 24  1  0  0  0
  2 25  1  0  0  0
  3 18  1  0  0  0
  3  9  1  0  0  0
  3  4  1  0  0  0
  4 19  1  0  0  0
  4  5  1  0  0  0
  4  6  1  0  0  0
  5 26  1  0  0  0
  6 20  1  0  0  0
  6  7  1  0  0  0
  6  8  1  0  0  0
  7 27  1  0  0  0
  8 21  1  0  0  0
  8  9  1  0  0  0
  8 10  1  0  0  0
 10 11  1  0  0  0
 10 14  1  0  0  0
 11 12  2  0  0  0
 11 13  1  0  0  0
 13 22  1  0  0  0
 13 16  1  0  0  0
 14 15  2  0  0  0
 14 28  1  0  0  0
 15 16  1  0  0  0
 15 29  1  0  0  0
 16 17  2  0  0  0
M  END
> <s_m_source_file>
/mnt/data/praktikum03/WORK/Luis/Masterarbeit/Daten/LEADS-FRAG/ci0c00693_si_002/5ILW/5ILW_ligand.mol2.smi

> <i_m_source_file_index>
1

> <i_lp_mmshare_version>
45011

> <i_f3d_flags>
0

> <s_epik_input>
W09IXVtDSDJdW0NAQEhdMVtDQEBIXShbT0hdKVtDQEBIXShbT0hdKVtDQEBIXShPMSluMmMoPU8pW25IXWMoPU8pW2NIXVtjSF0y

> <s_epik_cmdline>
J2VwaWtfcHl0aG9uJywgJy1waHQnLCAnMC4wJywgJy1waCcsICc3LjAnLCAnLXRuJywgJzgnLCAnLW1hJywgJzIwMCcsICctaW1hZScsICc8aW5maWxlLm1hZT4nLCAnLW9tYWUnLCAnPG91dGZpbGUubWFlPic=

> <r_lp_tautomer_probability>
1

> <r_epik_Ionization_Penalty>
  0.0043

> <r_epik_Ionization_Penalty_Charging>
  0.0043

> <r_epik_Ionization_Penalty_Neutral>
  0.0000

> <r_epik_State_Penalty>
 -0.0000

> <r_epik_Charging_Adjusted_Penalty>
0.00426155666867407

> <i_epik_Tot_Q>
0

> <i_epik_Tot_abs_Q>
0

> <s_epik_Chemistry_Notes>
This compound contains an acetal/aminal-like group ( X-CH(R)-Y where X, Y are N, S, or O) that may be acid/base labile, releasing an aldehyde.

> <s_lp_Force_Field>
OPLS3e

> <r_lp_Energy>
23.561165

> <b_lp_Chiralities_Consistent>
1

> <s_lp_Variant>
URI-1

> <s_i_glide_gridfile>
glide-grid

> <i_i_glide_lignum>
1

> <i_i_glide_rotatable_bonds>
5

> <r_i_docking_score>
-7.94749204944998

> <r_i_glide_ligand_efficiency>
-0.467499532320587

> <r_i_glide_ligand_efficiency_sa>
-1.20207293996202

> <r_i_glide_ligand_efficiency_ln>
-2.0733236937551

> <r_glide_XP_GScore>
-7.94749204944998

> <r_i_glide_gscore>
-7.94749204944998

> <r_i_glide_evdw>
-30.8748245239258

> <r_i_glide_ecoul>
-10.971887588501

> <r_i_glide_energy>
-41.8467121124268

> <r_i_glide_einternal>
4.42623090744019

> <r_i_glide_emodel>
-47.5637632610029

> <r_glide_XP_HBond>
-3.14572439189271

> <i_i_glide_confnum>
1

> <i_i_glide_posenum>
11

> <r_i_glide_eff_state_penalty>
-0

> <i_glide_XP_PoseRank>
3

> <r_i_glide_rmsd>
3.86863643280497

$$$$
